
**** 03/10/16 18:05:21 ****** PSpice Lite (October 2012) ****** ID# 10813 ****

 ** Profile: "SCHEMATIC1-lab1part3sim1"  [ c:\users\ben-setup\desktop\test_workspace\lab1part3-PSpiceFiles\SCHEMATIC1\lab1part3sim1.s


 ****     CIRCUIT DESCRIPTION


******************************************************************************




** Creating circuit file "lab1part3sim1.cir" 
** WARNING: THIS AUTOMATICALLY GENERATED FILE MAY BE OVERWRITTEN BY SUBSEQUENT SIMULATIONS

*Libraries: 
* Profile Libraries :
* Local Libraries :
* From [PSPICE NETLIST] section of C:\Users\Ben-Setup\AppData\Roaming\SPB_16.6\cdssetup\OrCAD_PSpice/16.6.0/PSpice.ini file:
.lib "nomd.lib" 

*Analysis directives: 
.AC DEC 1000 10Hz 10MegHz
.OPTIONS ADVCONV
.PROBE64 V(alias(*)) I(alias(*)) W(alias(*)) D(alias(*)) NOISE(alias(*)) 
.INC "..\SCHEMATIC1.net" 



**** INCLUDING SCHEMATIC1.net ****
* source LAB1PART3
C_C1         N01373 N01073  0.1uF  TC=0,0 
I_V1         N01373 0 DC 0Vdc AC 1Vac 
R_R1         0 N01073  5K TC=0,0 

**** RESUMING lab1part3sim1.cir ****
.END

ERROR(ORPSIM-15142): Node N01373 is floating
