
**** 03/10/16 16:14:01 ****** PSpice Lite (October 2012) ****** ID# 10813 ****

 ** Profile: "SCHEMATIC1-lab1part1sim1"  [ C:\Users\Ben-Setup\Desktop\test_workspace\lab1part1-PSpiceFiles\SCHEMATIC1\lab1part1sim1.s


 ****     CIRCUIT DESCRIPTION


******************************************************************************




** Creating circuit file "lab1part1sim1.cir" 
** WARNING: THIS AUTOMATICALLY GENERATED FILE MAY BE OVERWRITTEN BY SUBSEQUENT SIMULATIONS

*Libraries: 
* Profile Libraries :
* Local Libraries :
* From [PSPICE NETLIST] section of C:\Users\Ben-Setup\AppData\Roaming\SPB_16.6\cdssetup\OrCAD_PSpice/16.6.0/PSpice.ini file:
.lib "nomd.lib" 

*Analysis directives: 
.DC LIN V_V1 0V 6V .1V 
+ LIN I_I1 0 5mA 0.5mA 
.OPTIONS ADVCONV
.PROBE64 V(alias(*)) I(alias(*)) W(alias(*)) D(alias(*)) NOISE(alias(*)) 
.INC "..\SCHEMATIC1.net" 



**** INCLUDING SCHEMATIC1.net ****
* source LAB1PART1
Q_Q1         N00130 N00149 0 Q2N2222
I_I1         0 N00149 DC 0Adc  
V_V1         N00130 0 0Vdc

**** RESUMING lab1part1sim1.cir ****
.END

**** 03/10/16 16:14:01 ****** PSpice Lite (October 2012) ****** ID# 10813 ****

 ** Profile: "SCHEMATIC1-lab1part1sim1"  [ C:\Users\Ben-Setup\Desktop\test_workspace\lab1part1-PSpiceFiles\SCHEMATIC1\lab1part1sim1.s


 ****     BJT MODEL PARAMETERS


******************************************************************************




               Q2N2222         
               NPN             
       LEVEL    1            
          IS   14.340000E-15 
          BF  255.9          
          NF    1            
         VAF   74.03         
         IKF     .2847       
         ISE   14.340000E-15 
          NE    1.307        
          BR    6.092        
          NR    1            
         ISS    0            
          RB   10            
          RE    0            
          RC    1            
         CJE   22.010000E-12 
         VJE     .75         
         MJE     .377        
         CJC    7.306000E-12 
         VJC     .75         
         MJC     .3416       
        XCJC    1            
         CJS    0            
         VJS     .75         
          TF  411.100000E-12 
         XTF    3            
         VTF    1.7          
         ITF     .6          
          TR   46.910000E-09 
         XTB    1.5          
          KF    0            
          AF    1            
          CN    2.42         
           D     .87         



          JOB CONCLUDED

**** 03/10/16 16:14:01 ****** PSpice Lite (October 2012) ****** ID# 10813 ****

 ** Profile: "SCHEMATIC1-lab1part1sim1"  [ C:\Users\Ben-Setup\Desktop\test_workspace\lab1part1-PSpiceFiles\SCHEMATIC1\lab1part1sim1.s


 ****     JOB STATISTICS SUMMARY


******************************************************************************



  Total job time (using Solver 1)   =         .08
